       2
 i =        1, E =       -30.9580131162
  O         0.2297800000        7.9948480000        0.0787780000
  O         0.7310472414        6.7730068255        0.0313687245
       2
 i =        1, E =       -31.1176048080
  O         1.3192140000        7.9203740000        0.5094430000
  O        -0.2499440000        7.8994563245        0.5785782452
